# Packages
 &PACKAGES
 useCAL         = .TRUE.,
 useEXF         = .TRUE.,
 useSEAICE      = .TRUE.,
 useKPP         = .TRUE.,
 useFRAZIL      = .TRUE.,
 useDiagnostics = .TRUE.,
 useDiagnostics_vec = .TRUE.,
 useOBCS        = .TRUE.,
 /
